REMARK  5 active torsions:
REMARK  status: ('A' for Active; 'I' for Inactive)
REMARK    1  A    between atoms: C_1  and  C_6 
REMARK    2  A    between atoms: C_1  and  C_3 
REMARK    3  A    between atoms: C_3  and  O_4 
REMARK    4  A    between atoms: C_8  and  C_12 
REMARK    5  A    between atoms: C_12  and  C_14 
ROOT
HETATM    1  C   UNL     1      -0.372  -1.580   5.568  1.00  0.00    -0.043 A 
HETATM    2  C   UNL     1      -0.516  -2.980   5.676  1.00  0.00     0.023 A 
HETATM    3  C   UNL     1      -1.667  -3.631   5.179  1.00  0.00     0.015 A 
HETATM    4  C   UNL     1      -2.709  -2.880   4.646  1.00  0.00     0.015 A 
HETATM    5  C   UNL     1      -2.588  -1.494   4.554  1.00  0.00     0.002 A 
HETATM    6  C   UNL     1      -1.428  -0.854   5.002  1.00  0.00     0.008 A 
ENDROOT
BRANCH   3   7
HETATM    7  C   UNL     1      -1.814  -5.115   5.190  1.00  0.00     0.192 C 
HETATM    8  O   UNL     1      -2.925  -5.608   5.371  1.00  0.00    -0.287 OA
BRANCH   7   9
HETATM    9  C   UNL     1      -0.654  -6.007   4.922  1.00  0.00     0.015 A 
HETATM   10  C   UNL     1       0.438  -5.580   4.154  1.00  0.00     0.015 A 
HETATM   11  C   UNL     1       1.499  -6.448   3.900  1.00  0.00     0.001 A 
HETATM   12  C   UNL     1       1.465  -7.752   4.392  1.00  0.00     0.000 A 
HETATM   13  C   UNL     1       0.371  -8.190   5.139  1.00  0.00     0.001 A 
HETATM   14  C   UNL     1      -0.689  -7.321   5.402  1.00  0.00     0.015 A 
ENDBRANCH   7   9
ENDBRANCH   3   7
BRANCH   1  15
HETATM   15  C   UNL     1       0.886  -0.901   6.111  1.00  0.00     0.112 C 
HETATM   16  C   UNL     1       0.695  -0.469   7.567  1.00  0.00     0.026 C 
BRANCH  15  17
HETATM   17  C   UNL     1       1.400   0.296   5.303  1.00  0.00     0.148 C 
HETATM   18  O   UNL     1       1.668   1.389   5.784  1.00  0.00    -0.649 OA
BRANCH  17  19
HETATM   19  O   UNL     1       1.611   0.043   3.993  1.00  0.00    -0.776 OA
HETATM   20  H   UNL     1       1.364  -0.858   3.709  1.00  0.00     0.167 HD
ENDBRANCH  17  19
ENDBRANCH  15  17
ENDBRANCH   1  15
TORSDOF 5
