REMARK  5 active torsions:
REMARK  status: ('A' for Active; 'I' for Inactive)
REMARK    1  A    between atoms: C_2  and  C_4 
REMARK    2  A    between atoms: C_4  and  C_5 
REMARK    3  A    between atoms: C_8  and  C_11 
REMARK    4  A    between atoms: C_11  and  C_13 
REMARK    5  A    between atoms: C_13  and  O_14 
ROOT
HETATM    1  C   UNL     1       9.642  -3.267   3.192  1.00  0.00    -0.058 A 
HETATM    2  C   UNL     1       9.837  -1.969   2.710  1.00  0.00     0.007 A 
HETATM    3  C   UNL     1      10.999  -1.637   2.008  1.00  0.00     0.008 A 
HETATM    4  C   UNL     1      12.005  -2.591   1.792  1.00  0.00    -0.044 A 
HETATM    5  C   UNL     1      11.807  -3.891   2.282  1.00  0.00     0.008 A 
HETATM    6  C   UNL     1      10.638  -4.225   2.972  1.00  0.00     0.007 A 
ENDROOT
BRANCH   4   7
HETATM    7  C   UNL     1      13.296  -2.184   1.092  1.00  0.00     0.112 C 
HETATM    8  C   UNL     1      14.486  -2.381   2.037  1.00  0.00     0.026 C 
BRANCH   7   9
HETATM    9  C   UNL     1      13.598  -2.847  -0.251  1.00  0.00     0.148 C 
HETATM   10  O   UNL     1      14.662  -2.693  -0.839  1.00  0.00    -0.649 OA
BRANCH   9  11
HETATM   11  O   UNL     1      12.612  -3.594  -0.794  1.00  0.00    -0.776 OA
HETATM   12  H   UNL     1      11.791  -3.637  -0.275  1.00  0.00     0.167 HD
ENDBRANCH   9  11
ENDBRANCH   7   9
ENDBRANCH   4   7
BRANCH   1  13
HETATM   13  C   UNL     1       8.372  -3.634   3.930  1.00  0.00     0.042 C 
BRANCH  13  14
HETATM   14  C   UNL     1       7.096  -3.472   3.081  1.00  0.00    -0.019 C 
HETATM   15  C   UNL     1       7.131  -4.348   1.825  1.00  0.00     0.010 C 
HETATM   16  C   UNL     1       5.855  -3.809   3.911  1.00  0.00     0.010 C 
ENDBRANCH  13  14
ENDBRANCH   1  13
TORSDOF 5
